Git is a distributed version control system.
Git is free software distributed under the GPL.
Git has a mutable index called stage.
new line.
another new line.
get get get !
Creating a new branch is quick.
Creating a new branch is quick and simple.
new commit.
aa tesetr.
test dev.