Git is a distributed version control system.
Git is a free software distributed under the GPL.
Git has a mutable index called stage.
new line.
another new line.
get get get !
Creating a new branch is quick.
Creating a new branch is quick and simple.
new commit.
<<<<<<< HEAD
aa tesetr.
=======
aa tesetr.
test dev.
>>>>>>> dev
